*Heading
** Job name: Input_test Model name: test_model-1
** Generated by: Abaqus/CAE 2019
** ----------------------------------------------------------------
**
** PARTS
*Part, name=Wall
**
*Include, Input=C:/Users/xucha/Desktop/gmsh-4.10.5-Windows64/gmsh-4.10.5-Windows64/STLFiles\wall.inp
*Elset, elset=Wall-Set-1, generate
   1,  400,    1
** Section: Wall-Section-1
*Solid Section, elset=Wall-Set-1, material=WALL
,
*End Part
**
*Part, name = Merged_Bar
**
*Include, Input = C:/Users/xucha/Desktop\merged_test_full.inp
*Elset, elset=VOLUME1, generate
    1,  1352,     1
*Elset, elset=MB-Set1, generate
    1,  1352,     1
** Section: MB-Section-1
*Solid Section, elset=MB-Set1, material=BAR
,
*End Part
**

**
** ASSEMBLY
**
*Assembly, name=Assembly
**  
*Instance, name=MERGED_BAR-1, part=MERGED_BAR
*End Instance
**  
*Instance, name=WALL-1, part=WALL
*End Instance
**  
*Nset, nset=BC-Set1, instance=WALL-1, generate
   1,  882,    1
*Nset, nset=Vel-Set-1, instance=MERGED_BAR-1, generate
   1,  363,    1
*Elset, elset=_first_Surf-1_S1, internal, instance=MERGED_BAR-1
    9,   10,   26,   27,   38,   39,   42,   43,   62,   63,   94,   95,  102,  103,  104,  119
  123,  127,  144,  148,  153,  155,  156,  157,  163,  190,  281,  282,  286,  287,  290,  291
  294,  296,  307,  310,  313,  314,  342,  343,  377,  383,  384,  394,  457,  465,  470,  501
  509,  510,  515,  516,  524,  528,  532,  572,  573,  575,  576,  600,  606,  609,  613,  616
  617,  621,  631,  641,  648,  649,  713,  714,  718,  719,  721,  735,  736,  772,  773,  798
  808,  810,  811,  825,  826,  832,  833,  843,  943,  944,  945,  946,  974,  975, 1044, 1050
 1051, 1067, 1068, 1072, 1073, 1076, 1077, 1094, 1095, 1096, 1097, 1099, 1100, 1106, 1108, 1109
 1110, 1111, 1112, 1113, 1129, 1130, 1137, 1138, 1148, 1149, 1157, 1158, 1162, 1163, 1177, 1178
 1188, 1189, 1193, 1194, 1208, 1214, 1216, 1224, 1230, 1242, 1246, 1248, 1250, 1264, 1265, 1273
 1274, 1282, 1288, 1289, 1290, 1293
*Elset, elset=_first_Surf-1_S2, internal, instance=MERGED_BAR-1
   73,   87,  112,  113,  114,  115,  117,  118,  120,  122,  124,  125,  126,  129,  130,  133
  135,  138,  139,  140,  143,  145,  146,  147,  151,  152,  158,  164,  165,  168,  169,  170
  172,  173,  175,  181,  183,  186,  187,  188,  189,  191,  192,  275,  279,  284,  292,  297
  298,  299,  300,  301,  304,  305,  319,  324,  328,  329,  330,  331,  334,  335,  337,  338
  380,  385,  386,  391,  392,  395,  402,  430,  442,  447,  448,  467,  469,  471,  472,  473
  475,  476,  478,  479,  480,  482,  483,  484,  485,  502,  507,  508,  512,  513,  519,  520
  523,  525,  534,  536,  537,  538,  547,  548,  561,  592,  593,  595,  596,  599,  601,  603
  605,  607,  608,  612,  615,  622,  623,  624,  628,  634,  640,  664,  667,  678,  720,  754
  755,  765,  774,  775,  777,  780,  782,  783,  787,  789,  790,  791,  792,  793,  794,  796
  799,  802,  805,  809,  814,  820,  822,  834,  837,  842,  849,  850,  851,  902,  917,  921
  938,  939, 1071, 1141, 1142, 1146, 1147, 1159, 1173, 1174, 1179, 1185, 1215, 1217, 1218, 1220
 1222, 1223, 1226, 1227, 1229, 1231, 1232, 1233, 1234, 1236, 1237, 1238, 1239, 1240, 1241, 1244
 1252, 1253, 1254, 1255, 1256, 1257, 1276, 1277, 1281, 1284, 1291, 1321, 1337
*Elset, elset=_first_Surf-1_S3, internal, instance=MERGED_BAR-1
   87,  121,  127,  128,  129,  131,  134,  135,  136,  141,  142,  143,  151,  155,  162,  219
  227,  247,  293,  294,  295,  297,  302,  315,  333,  348,  352,  353,  373,  376,  381,  436
  442,  460,  475,  477,  481,  500,  533,  565,  598,  626,  647,  677,  758,  790,  792,  795
  796,  819,  838,  906,  907,  910,  918, 1179, 1223, 1226, 1229, 1234, 1237, 1240, 1243, 1248
 1249, 1252, 1263
*Elset, elset=_first_Surf-1_S4, internal, instance=MERGED_BAR-1
   35,   74,   87,  110,  111,  123,  124,  126,  139,  145,  148,  149,  150,  154,  178,  179
  246,  291,  296,  299,  302,  311,  322,  323,  332,  349,  374,  375,  428,  437,  460,  468
  470,  471,  474,  479,  482,  485,  499,  518,  540,  566,  600,  602,  603,  614,  627,  635
  646,  663,  788,  797,  798,  802,  812,  827,  839,  846,  847,  900,  913, 1179, 1215, 1221
 1225, 1228, 1231, 1235, 1242, 1245, 1247, 1250, 1251, 1253, 1255, 1262, 1324, 1343
*Surface, type=ELEMENT, name=first_Surf-1
_first_Surf-1_S1, S1
_first_Surf-1_S2, S2
_first_Surf-1_S4, S4
_first_Surf-1_S3, S3
*Elset, elset=_second_Surf-1_S1, internal, instance=WALL-1, generate
 381,  400,    1
*Elset, elset=_second_Surf-1_S2, internal, instance=WALL-1, generate
  1,  20,   1
*Elset, elset=_second_Surf-1_S3, internal, instance=WALL-1, generate
   1,  400,    1
*Elset, elset=_second_Surf-1_S4, internal, instance=WALL-1, generate
  20,  400,   20
*Elset, elset=_second_Surf-1_S5, internal, instance=WALL-1, generate
   1,  400,    1
*Elset, elset=_second_Surf-1_S6, internal, instance=WALL-1, generate
   1,  381,   20
*Surface, type=ELEMENT, name=second_Surf-1
_second_Surf-1_S1, S1
_second_Surf-1_S2, S2
_second_Surf-1_S4, S4
_second_Surf-1_S6, S6
_second_Surf-1_S3, S3
_second_Surf-1_S5, S5
*End Assembly
** 
**
** MATERIALS
** 
*Material, name=BAR
*Density
 8.968e-09,
*Elastic
124000., 0.34
*Material, name=WALL
*Density
 8.968e-09,
*Elastic
210000., 0.3
** 
** INTERACTION PROPERTIES
** 
*Surface Interaction, name=IntProp-1
*Friction
0.,
*Surface Behavior, pressure-overclosure=HARD
** 
** BOUNDARY CONDITIONS
** 
** Name: BC-1 Type: Displacement/Rotation
*Boundary
BC-Set1, 1, 1
BC-Set1, 2, 2
BC-Set1, 3, 3
BC-Set1, 4, 4
BC-Set1, 5, 5
BC-Set1, 6, 6
** 
** PREDEFINED FIELDS
** 
** Name: Velocity   Type: Velocity
*Initial Conditions, type=VELOCITY
Vel-Set-1, 1, 0.
Vel-Set-1, 2, 0.
Vel-Set-1, 3, -500000.
** ----------------------------------------------------------------
** 
** STEP: Step-1
** 
*Step, name=Step-1, nlgeom=YES
*Dynamic, Explicit
, 0.0001
*Bulk Viscosity
0.06, 1.2
** 
** INTERACTIONS
** 
** Interaction: Int-1
*Contact Pair, interaction=IntProp-1, mechanical constraint=KINEMATIC, cpset=Int-1
first_Surf-1, second_Surf-1
** 
** OUTPUT REQUESTS
** 
*Restart, write, number interval=1, time marks=NO
** 
** FIELD OUTPUT: F-Output-1
** 
*Output, field, variable=PRESELECT
** 
** HISTORY OUTPUT: H-Output-1
** 
*Output, history, variable=PRESELECT
*End Step
